*Heading 
** Job name: IN Model name: 
** Generated by MisuLab for Abaqus 2023 
*Preprint, echo=NO, model=NO, history=NO, contact=NO 
**
** PARTS
**
*Part, name=Tool
*Node
     1, 0.0, 0.0, 0.0
     2, 0.0036560803021544247, -0.029776384549239657, 0.0
     3, -0.02991555400575347, -0.002249361804789854, 0.0
     4, 0.03968965872192127, 0.66, 0.0
     5, 0.66, 0.66, 0.0
     6, 0.66, 0.05081251543215158, 0.0
     7, -0.02991555400575347, -0.002249361804789854, 0.005
     8, 0.03968965872192127, 0.66, 0.005
     9, 0.66, 0.66, 0.005
     10, 0.66, 0.05081251543215158, 0.005
     11, 0.0036560803021544247, -0.029776384549239657, 0.005
     12, 0.0, 0.0, 0.005
     13, -0.028886023048629347, 0.007545970938193645, 0.0
     14, -0.02779558113283844, 0.017920832741189018, 0.0
     15, -0.026640624144228155, 0.028909514459778705, 0.0
     16, -0.025417334974173672, 0.040548333456580536, 0.0
     17, -0.02412167175204666, 0.05287574556182929, 0.0
     18, -0.02274935142188442, 0.06593250133093187, 0.0
     19, -0.02129583934782748, 0.07976174494212258, 0.0
     20, -0.01975633171458429, 0.09440918164485593, 0.0
** ... 942 like lines cut
*Element, type=C3D8RT
     1, 526, 431, 379, 380, 924, 829, 777, 778
     2, 470, 373, 375, 324, 868, 771, 773, 722
     3, 273, 466, 373, 470, 671, 864, 771, 868
     4, 541, 446, 303, 329, 939, 844, 701, 727
     5, 361, 444, 236, 491, 759, 842, 634, 889
     6, 193, 507, 13, 3, 591, 905, 90, 7
     7, 47, 351, 471, 48, 124, 749, 869, 125
     8, 514, 189, 451, 386, 912, 587, 849, 784
     9, 529, 331, 403, 432, 927, 729, 801, 830
     10, 441, 537, 235, 392, 839, 935, 633, 790
     11, 384, 186, 363, 352, 782, 584, 761, 750
     12, 492, 360, 359, 183, 890, 758, 757, 581
     13, 350, 349, 552, 467, 748, 747, 950, 865
     14, 235, 224, 222, 392, 633, 622, 620, 790
     15, 281, 423, 400, 472, 679, 821, 798, 870
     16, 382, 324, 375, 533, 780, 722, 773, 931
     17, 325, 495, 462, 518, 723, 893, 860, 916
     18, 388, 223, 225, 432, 786, 621, 623, 830
     19, 502, 313, 482, 405, 900, 711, 880, 803
     20, 331, 280, 264, 403, 729, 678, 662, 801
** ... 418 like lines cut
*Node
963, 0.66, 0.66, -0.0025
*Nset, nset=Tool-use-RefPt_, internal
963,
*Nset, nset=Set-Tool, generate
   1,  962,    1
*Elset, elset=Set-Tool, generate
   1,  438,    1
*Nset, nset=Set-RP
963,
** Section: Section-Tool
*Solid Section, elset=Set-Tool, material=Carbure
1.,
*End Part
**
*Part, name=Massif
*Node
     1, -1.5, -1.5, 0.0
     2, -1.448309, -1.5, 0.0
     3, -1.397088, -1.5, 0.0
     4, -1.346337, -1.5, 0.0
     5, -1.296056, -1.5, 0.0
     6, -1.246245, -1.5, 0.0
     7, -1.196904, -1.5, 0.0
     8, -1.148032, -1.5, 0.0
     9, -1.099631, -1.5, 0.0
     10, -1.0517, -1.5, 0.0
     11, -1.004238, -1.5, 0.0
     12, -0.957246, -1.5, 0.0
     13, -0.910725, -1.5, 0.0
     14, -0.864673, -1.5, 0.0
     15, -0.819091, -1.5, 0.0
     16, -0.773979, -1.5, 0.0
     17, -0.729337, -1.5, 0.0
     18, -0.685165, -1.5, 0.0
     19, -0.641462, -1.5, 0.0
     20, -0.59823, -1.5, 0.0
** ... 27240 like lines cut
*Element, type=EC3D8RT
     1, 1, 2, 96, 95, 13631, 13632, 13726, 13725
     2, 2, 3, 97, 96, 13632, 13633, 13727, 13726
     3, 3, 4, 98, 97, 13633, 13634, 13728, 13727
     4, 4, 5, 99, 98, 13634, 13635, 13729, 13728
     5, 5, 6, 100, 99, 13635, 13636, 13730, 13729
     6, 6, 7, 101, 100, 13636, 13637, 13731, 13730
     7, 7, 8, 102, 101, 13637, 13638, 13732, 13731
     8, 8, 9, 103, 102, 13638, 13639, 13733, 13732
     9, 9, 10, 104, 103, 13639, 13640, 13734, 13733
     10, 10, 11, 105, 104, 13640, 13641, 13735, 13734
     11, 11, 12, 106, 105, 13641, 13642, 13736, 13735
     12, 12, 13, 107, 106, 13642, 13643, 13737, 13736
     13, 13, 14, 108, 107, 13643, 13644, 13738, 13737
     14, 14, 15, 109, 108, 13644, 13645, 13739, 13738
     15, 15, 16, 110, 109, 13645, 13646, 13740, 13739
     16, 16, 17, 111, 110, 13646, 13647, 13741, 13740
     17, 17, 18, 112, 111, 13647, 13648, 13742, 13741
     18, 18, 19, 113, 112, 13648, 13649, 13743, 13742
     19, 19, 20, 114, 113, 13649, 13650, 13744, 13743
     20, 20, 21, 115, 114, 13650, 13651, 13745, 13744
** ... 13372 like lines cut
*Nset, nset=Set-Massif, generate
      1,  27260,      1
*Elset, elset=Set-Massif, generate
    1,  13392,     1
*Nset, nset=Set-Material
1, 2, 3, 4, 5, 6, 7, 8, 9, 10, 11, 12, 13, 14, 15,
16, 17, 18, 19, 20, 21, 22, 23, 24, 25, 26, 27, 28, 29, 30,
31, 32, 33, 34, 35, 36, 37, 38, 39, 40, 41, 95, 96, 97, 98,
99, 100, 101, 102, 103, 104, 105, 106, 107, 108, 109, 110, 111, 112, 113,
114, 115, 116, 117, 118, 119, 120, 121, 122, 123, 124, 125, 126, 127, 128,
129, 130, 131, 132, 133, 134, 135, 189, 190, 191, 192, 193, 194, 195, 196,
197, 198, 199, 200, 201, 202, 203, 204, 205, 206, 207, 208, 209, 210, 211,
212, 213, 214, 215, 216, 217, 218, 219, 220, 221, 222, 223, 224, 225, 226,
227, 228, 229, 283, 284, 285, 286, 287, 288, 289, 290, 291, 292, 293, 294,
295, 296, 297, 298, 299, 300, 301, 302, 303, 304, 305, 306, 307, 308, 309,
310, 311, 312, 313, 314, 315, 316, 317, 318, 319, 320, 321, 322, 323, 377,
378, 379, 380, 381, 382, 383, 384, 385, 386, 387, 388, 389, 390, 391, 392,
393, 394, 395, 396, 397, 398, 399, 400, 401, 402, 403, 404, 405, 406, 407,
408, 409, 410, 411, 412, 413, 414, 415, 416, 417, 471, 472, 473, 474, 475,
476, 477, 478, 479, 480, 481, 482, 483, 484, 485, 486, 487, 488, 489, 490,
491, 492, 493, 494, 495, 496, 497, 498, 499, 500, 501, 502, 503, 504, 505,
506, 507, 508, 509, 510, 511, 565, 566, 567, 568, 569, 570, 571, 572, 573,
574, 575, 576, 577, 578, 579, 580, 581, 582, 583, 584, 585, 586, 587, 588,
589, 590, 591, 592, 593, 594, 595, 596, 597, 598, 599, 600, 601, 602, 603,
604, 605, 659, 660, 661, 662, 663, 664, 665, 666, 667, 668, 669, 670, 671,
** ... 697 like lines cut
*Elset, elset=Set-Material
1, 2, 3, 4, 5, 6, 7, 8, 9, 10, 11, 12, 13, 14, 15,
16, 17, 18, 19, 20, 21, 22, 23, 24, 25, 26, 27, 28, 29, 30,
31, 32, 33, 34, 35, 36, 37, 38, 39, 40, 94, 95, 96, 97, 98,
99, 100, 101, 102, 103, 104, 105, 106, 107, 108, 109, 110, 111, 112, 113,
114, 115, 116, 117, 118, 119, 120, 121, 122, 123, 124, 125, 126, 127, 128,
129, 130, 131, 132, 133, 187, 188, 189, 190, 191, 192, 193, 194, 195, 196,
197, 198, 199, 200, 201, 202, 203, 204, 205, 206, 207, 208, 209, 210, 211,
212, 213, 214, 215, 216, 217, 218, 219, 220, 221, 222, 223, 224, 225, 226,
280, 281, 282, 283, 284, 285, 286, 287, 288, 289, 290, 291, 292, 293, 294,
295, 296, 297, 298, 299, 300, 301, 302, 303, 304, 305, 306, 307, 308, 309,
310, 311, 312, 313, 314, 315, 316, 317, 318, 319, 373, 374, 375, 376, 377,
378, 379, 380, 381, 382, 383, 384, 385, 386, 387, 388, 389, 390, 391, 392,
393, 394, 395, 396, 397, 398, 399, 400, 401, 402, 403, 404, 405, 406, 407,
408, 409, 410, 411, 412, 466, 467, 468, 469, 470, 471, 472, 473, 474, 475,
476, 477, 478, 479, 480, 481, 482, 483, 484, 485, 486, 487, 488, 489, 490,
491, 492, 493, 494, 495, 496, 497, 498, 499, 500, 501, 502, 503, 504, 505,
559, 560, 561, 562, 563, 564, 565, 566, 567, 568, 569, 570, 571, 572, 573,
574, 575, 576, 577, 578, 579, 580, 581, 582, 583, 584, 585, 586, 587, 588,
589, 590, 591, 592, 593, 594, 595, 596, 597, 598, 652, 653, 654, 655, 656,
657, 658, 659, 660, 661, 662, 663, 664, 665, 666, 667, 668, 669, 670, 671,
** ... 327 like lines cut
** Section: Section-Massif
*Eulerian Section, elset=Set-Massif
"PH15_5_ENISE", "material_field"
*Surface, type=EULERIAN MATERIAL, name="material_field"
"material_field"
*End Part
**
**
** ASSEMBLY
**
*Assembly, name=Assembly
**  
*Instance, name=Massif-1, part=Massif
*End Instance
**   
*Instance, name=Tool-1, part=Tool 
*End Instance
**
*Nset, nset=Set-All, instance=Massif-1, generate
     1,  27260,      1
*Nset, nset=Set-All, instance=Tool-1
 963,
*Elset, elset=Set-All, instance=Massif-1, generate
    1,  13392,     1
*Nset, nset=Set-In, instance=Massif-1
1, 95, 189, 283, 377, 471, 565, 659, 753, 847, 941, 1035, 1129, 1223, 1317,
1411, 1505, 1599, 1693, 1787, 1881, 1975, 2069, 2163, 2257, 2351, 2445, 2539, 2633, 2727,
2821, 2915, 3009, 3103, 3197, 3291, 3385, 3479, 3573, 3667, 3761, 3855, 3949, 4043, 4137,
4231, 4325, 4419, 4513, 4607, 4701, 4795, 4889, 4983, 5077, 5171, 5265, 5359, 5453, 5547,
5641, 5735, 5829, 5923, 6017, 6111, 6205, 6299, 6393, 6487, 6581, 6675, 6769, 6863, 6957,
7051, 7145, 7239, 7333, 7427, 7521, 7615, 7709, 7803, 7897, 7991, 8085, 8179, 8273, 8367,
8461, 8555, 8649, 8743, 8837, 8931, 9025, 9119, 9213, 9307, 9401, 9495, 9589, 9683, 9777,
9871, 9965, 10059, 10153, 10247, 10341, 10435, 10529, 10623, 10717, 10811, 10905, 10999, 11093, 11187,
11281, 11375, 11469, 11563, 11657, 11751, 11845, 11939, 12033, 12127, 12221, 13631, 13725, 13819, 13913,
14007, 14101, 14195, 14289, 14383, 14477, 14571, 14665, 14759, 14853, 14947, 15041, 15135, 15229, 15323,
15417, 15511, 15605, 15699, 15793, 15887, 15981, 16075, 16169, 16263, 16357, 16451, 16545, 16639, 16733,
16827, 16921, 17015, 17109, 17203, 17297, 17391, 17485, 17579, 17673, 17767, 17861, 17955, 18049, 18143,
18237, 18331, 18425, 18519, 18613, 18707, 18801, 18895, 18989, 19083, 19177, 19271, 19365, 19459, 19553,
19647, 19741, 19835, 19929, 20023, 20117, 20211, 20305, 20399, 20493, 20587, 20681, 20775, 20869, 20963,
21057, 21151, 21245, 21339, 21433, 21527, 21621, 21715, 21809, 21903, 21997, 22091, 22185, 22279, 22373,
22467, 22561, 22655, 22749, 22843, 22937, 23031, 23125, 23219, 23313, 23407, 23501, 23595, 23689, 23783,
23877, 23971, 24065, 24159, 24253, 24347, 24441, 24535, 24629, 24723, 24817, 24911, 25005, 25099, 25193,
25287, 25381, 25475, 25569, 25663, 25757, 25851
*Elset, elset=Set-In, instance=Massif-1
1, 94, 187, 280, 373, 466, 559, 652, 745, 838, 931, 1024, 1117, 1210, 1303,
1396, 1489, 1582, 1675, 1768, 1861, 1954, 2047, 2140, 2233, 2326, 2419, 2512, 2605, 2698,
2791, 2884, 2977, 3070, 3163, 3256, 3349, 3442, 3535, 3628, 3721, 3814, 3907, 4000, 4093,
4186, 4279, 4372, 4465, 4558, 4651, 4744, 4837, 4930, 5023, 5116, 5209, 5302, 5395, 5488,
5581, 5674, 5767, 5860, 5953, 6046, 6139, 6232, 6325, 6418, 6511, 6604, 6697, 6790, 6883,
6976, 7069, 7162, 7255, 7348, 7441, 7534, 7627, 7720, 7813, 7906, 7999, 8092, 8185, 8278,
8371, 8464, 8557, 8650, 8743, 8836, 8929, 9022, 9115, 9208, 9301, 9394, 9487, 9580, 9673,
9766, 9859, 9952, 10045, 10138, 10231, 10324, 10417, 10510, 10603, 10696, 10789, 10882, 10975, 11068,
11161, 11254, 11347, 11440, 11533, 11626, 11719, 11812, 11905, 11998
*Nset, nset=Set-Down, instance=Massif-1
1, 2, 3, 4, 5, 6, 7, 8, 9, 10, 11, 12, 13, 14, 15,
16, 17, 18, 19, 20, 21, 22, 23, 24, 25, 26, 27, 28, 29, 30,
31, 32, 33, 34, 35, 36, 37, 38, 39, 40, 41, 42, 43, 44, 45,
46, 47, 48, 49, 50, 51, 52, 53, 54, 55, 56, 57, 58, 59, 60,
61, 62, 63, 64, 65, 66, 67, 68, 69, 70, 71, 72, 73, 74, 75,
76, 77, 78, 79, 80, 81, 82, 83, 84, 85, 86, 87, 88, 89, 90,
91, 92, 93, 94, 13631, 13632, 13633, 13634, 13635, 13636, 13637, 13638, 13639, 13640, 13641,
13642, 13643, 13644, 13645, 13646, 13647, 13648, 13649, 13650, 13651, 13652, 13653, 13654, 13655, 13656,
13657, 13658, 13659, 13660, 13661, 13662, 13663, 13664, 13665, 13666, 13667, 13668, 13669, 13670, 13671,
13672, 13673, 13674, 13675, 13676, 13677, 13678, 13679, 13680, 13681, 13682, 13683, 13684, 13685, 13686,
13687, 13688, 13689, 13690, 13691, 13692, 13693, 13694, 13695, 13696, 13697, 13698, 13699, 13700, 13701,
13702, 13703, 13704, 13705, 13706, 13707, 13708, 13709, 13710, 13711, 13712, 13713, 13714, 13715, 13716,
13717, 13718, 13719, 13720, 13721, 13722, 13723, 13724
*Elset, elset=Set-Down, instance=Massif-1
1, 2, 3, 4, 5, 6, 7, 8, 9, 10, 11, 12, 13, 14, 15,
16, 17, 18, 19, 20, 21, 22, 23, 24, 25, 26, 27, 28, 29, 30,
31, 32, 33, 34, 35, 36, 37, 38, 39, 40, 41, 42, 43, 44, 45,
46, 47, 48, 49, 50, 51, 52, 53, 54, 55, 56, 57, 58, 59, 60,
61, 62, 63, 64, 65, 66, 67, 68, 69, 70, 71, 72, 73, 74, 75,
76, 77, 78, 79, 80, 81, 82, 83, 84, 85, 86, 87, 88, 89, 90,
91, 92, 93
*Nset, nset=Set-zz, instance=Massif-1,generate
     1,  27260,      1
*Elset, elset=Set-zz, instance=Massif-1,generate
    1,  13392,     1
*Elset, elset=_Surf-In_S6, internal, instance=Massif-1
1, 94, 187, 280, 373, 466, 559, 652, 745, 838, 931, 1024, 1117, 1210, 1303,
1396, 1489, 1582, 1675, 1768, 1861, 1954, 2047, 2140, 2233, 2326, 2419, 2512, 2605, 2698,
2791, 2884, 2977, 3070, 3163, 3256, 3349, 3442, 3535, 3628, 3721, 3814, 3907, 4000, 4093,
4186, 4279, 4372, 4465, 4558, 4651, 4744, 4837, 4930, 5023, 5116, 5209, 5302, 5395, 5488,
5581, 5674, 5767, 5860, 5953, 6046, 6139, 6232, 6325, 6418, 6511, 6604, 6697, 6790, 6883,
6976, 7069, 7162, 7255, 7348, 7441, 7534, 7627, 7720, 7813, 7906, 7999, 8092, 8185, 8278,
8371, 8464, 8557, 8650, 8743, 8836, 8929, 9022, 9115, 9208, 9301, 9394, 9487, 9580, 9673,
9766, 9859, 9952, 10045, 10138, 10231, 10324, 10417, 10510, 10603, 10696, 10789, 10882, 10975, 11068,
11161, 11254, 11347, 11440, 11533, 11626, 11719, 11812, 11905, 11998, 12091, 12184, 12277, 12370, 12463,
12556, 12649, 12742, 12835, 12928, 13021, 13114, 13207, 13300
*Surface, type=ELEMENT, name=Surf-In
_Surf-In_S6, S6
*Elset, elset=_Surf-Out_S4, internal, instance=Massif-1
93, 186, 279, 372, 465, 558, 651, 744, 837, 930, 1023, 1116, 1209, 1302, 1395,
1488, 1581, 1674, 1767, 1860, 1953, 2046, 2139, 2232, 2325, 2418, 2511, 2604, 2697, 2790,
2883, 2976, 3069, 3162, 3255, 3348, 3441, 3534, 3627, 3720, 3813, 3906, 3999, 4092, 4185,
4278, 4371, 4464, 4557, 4650, 4743, 4836, 4929, 5022, 5115, 5208, 5301, 5394, 5487, 5580,
5673, 5766, 5859, 5952, 6045, 6138, 6231, 6324, 6417, 6510, 6603, 6696, 6789, 6882, 6975,
7068, 7161, 7254, 7347, 7440, 7533, 7626, 7719, 7812, 7905, 7998, 8091, 8184, 8277, 8370,
8463, 8556, 8649, 8742, 8835, 8928, 9021, 9114, 9207, 9300, 9393, 9486, 9579, 9672, 9765,
9858, 9951, 10044, 10137, 10230, 10323, 10416, 10509, 10602, 10695, 10788, 10881, 10974, 11067, 11160,
11253, 11346, 11439, 11532, 11625, 11718, 11811, 11904, 11997, 12090, 12183, 12276, 12369, 12462, 12555,
12648, 12741, 12834, 12927, 13020, 13113, 13206, 13299, 13392
*Surface, type=ELEMENT, name=Surf-Out
_Surf-Out_S4, S4      
*Elset, elset=_Surf-Top_S5, internal, instance=Massif-1
13300, 13301, 13302, 13303, 13304, 13305, 13306, 13307, 13308, 13309, 13310, 13311, 13312, 13313, 13314,
13315, 13316, 13317, 13318, 13319, 13320, 13321, 13322, 13323, 13324, 13325, 13326, 13327, 13328, 13329,
13330, 13331, 13332, 13333, 13334, 13335, 13336, 13337, 13338, 13339, 13340, 13341, 13342, 13343, 13344,
13345, 13346, 13347, 13348, 13349, 13350, 13351, 13352, 13353, 13354, 13355, 13356, 13357, 13358, 13359,
13360, 13361, 13362, 13363, 13364, 13365, 13366, 13367, 13368, 13369, 13370, 13371, 13372, 13373, 13374,
13375, 13376, 13377, 13378, 13379, 13380, 13381, 13382, 13383, 13384, 13385, 13386, 13387, 13388, 13389,
13390, 13391, 13392
*Surface, type=ELEMENT, name=Surf-Top
_Surf-Top_S5, S5
** Constraint: Constraint-RB
*Rigid Body, ref node=Tool-1.Set-RP, elset=Tool-1.Set-Tool
*End Assembly
** 
*Material, name="PH15_5_ENISE"
*Density
 0.781,   0
 0.745,   1200
*Elastic
197000,  0.272,   20
128600,  0.272,   1200
*Plastic, hardening=JOHNSON COOK
1073.145983, 704.863437, 0.548579, 0.805925, 1440, 20,
*Rate Dependent, type=JOHNSON COOK
0.049883, 0.001, ,
*Conductivity
 0.0087,   0
 0.0292,   1200
*Expansion, zero=20
 1.04e-05, 20.5
 1.45e-05, 1200.0
*Inelastic Heat Fraction
0.949853
*Specific Heat
 2.48,   0
 14.0,   1200
** Donnees wikipedia & thse de T LEVEILLE pour linstant...
*Material, name=Carbure
*Conductivity
 0.11,
*Density
1.46,
*Elastic
620000., 0.235
*Expansion, zero=20.
 4.9e-06,
*Specific Heat
 2.88,
** INTERACTION PROPERTIES
** 
*Surface Interaction, name=IntProp-1
*Friction
0.279,
*Surface Behavior, pressure-overclosure=HARD
*Contact Damping, definition=CRITICAL DAMPING FRACTION, tangent fraction=0
 0.03,
*Gap Conductance, pressure
 0.,  0.
 0.01, 0.001
*Gap Heat Generation
1., 0.85
** PHYSICAL CONSTANTS
** 
*Physical Constants, absolute zero=-273.15, stefan boltzmann=5.6704e-11
** 
** BOUNDARY CONDITIONS
** 
** 
** Name: BC-Bas Type: Velocity/Angular velocity
*Boundary, type=VELOCITY
Set-Down, 2, 2
Set-Down, 3, 3
** Name: BC-No-Mvt-zz Type: Velocity/Angular velocity
*Boundary, type=VELOCITY
Set-zz, 3, 3
** Name: BC-Tool Type: Symmetry/Antisymmetry/Encastre
*Boundary
Tool-1.Set-RP, ENCASTRE
** 
** PREDEFINED FIELDS
** 
** Name: PF-Temperature-Massif   Type: Temperature
*Initial Conditions, type=TEMPERATURE
Massif-1.Set-Massif, 25.
** Name: PF-Temperature-Tool   Type: Temperature
*Initial Conditions, type=TEMPERATURE
Tool-1.Set-Tool, 25.
** Name: PF-Vitesse   Type: Velocity
*Initial Conditions, type=VELOCITY
Massif-1.Set-Material, 1, 2.0
** Name: PF-Void   Type: Material assignment
*Initial Conditions, type=VOLUME FRACTION
Massif-1.Set-Material, Massif-1."material_field", 1.
** 
** INTERACTIONS
** 
** Interaction: Int-1
*Contact, op=NEW
*Contact Inclusions, ALL EXTERIOR
*Contact Property Assignment
 ,  , IntProp-1
** ----------------------------------------------------------------
** 
** STEP: Step-1
** 
*Step, name=Step-1, nlgeom=YES
*Dynamic Temperature-displacement, Explicit
, 0.84
*Bulk Viscosity
0.06, 1.2
** BOUNDARY CONDITIONS
** 
** Name: BC-Temperature Type: Temperature
*Boundary
Set-In, 11, 11, 25.
** Name: BC-Vitesse Type: Velocity/Angular velocity
*Boundary, type=VELOCITY
Set-In, 1, 1, 2.0
** Name: EB-In Type: Eulerian boundary
*Eulerian Boundary, inflow=FREE, outflow=FREE
Surf-In
** Name: EB-Out Type: Eulerian boundary
*Eulerian Boundary, inflow=FREE, outflow=FREE
Surf-Out
** Name: EB-Top Type: Eulerian boundary
*Eulerian Boundary, inflow=FREE, outflow=FREE
Surf-Top
** 
** OUTPUT REQUESTS
** 
*Restart, write, number interval=1, time marks=NO
** 
** FIELD OUTPUT: F-Output-1
** 
*Output, field, number interval=100
*Node Output
COORD, V, NT
*Element Output, directions=YES
COORD, HFL, S,TEMP
** 
** FIELD OUTPUT: F-Output-2-Eulerian
** 
** FIELD OUTPUT: F-Output-strain 
** 
*Element Output, elset=MASSIF-1.SET-MASSIF, directions=YES 
E, LE, NE, PE, PEEQ 
*Element Output, elset=Massif-1.Set-Massif, directions=YES
EVF, SVAVG
** 
** FIELD OUTPUT: F-Output-strain 
** 
*Element Output, elset=MASSIF-1.SET-MASSIF, directions=YES 
E, LE, NE, PE, PEEQ 
** 
** FIELD OUTPUT: F-Output-RF
** 
*Node Output, nset=Tool-1.Set-RP
RF, 
** 
** HISTORY OUTPUT: H-Output-1
** 
*Output, history, variable=PRESELECT
*End Step
